FoamFile
{
    version     2.0;
    format      ascii;
    class       dictionary;
    object      blockMeshDict;
}

scale   1;

xMin   -0.75;
xMax    1.50;
yMin   -0.75;
yMax    0.75;
zMin   -0.75;
zMax    0.75;

vertices
(
    ($xMin $yMin $zMin)   // 0
    ($xMax $yMin $zMin)   // 1
    ($xMax $yMax $zMin)   // 2
    ($xMin $yMax $zMin)   // 3
    ($xMin $yMin $zMax)   // 4
    ($xMax $yMin $zMax)   // 5
    ($xMax $yMax $zMax)   // 6
    ($xMin $yMax $zMax)   // 7
);

blocks
(
    hex (0 1 2 3 4 5 6 7) (45 30 30) simpleGrading (1 1 1)
);

edges
(
);

boundary
(
    inlet
    {
        type patch;
        faces ( (0 4 7 3) );
    }

    outlet
    {
        type patch;
        faces ( (1 2 6 5) );
    }

    farfield
    {
        type patch;
        faces
        (
            (0 3 2 1)   // zMin
            (4 5 6 7)   // zMax
            (0 1 5 4)   // yMin
            (3 7 6 2)   // yMax
        );
    }
);

mergePatchPairs
(
);
