FoamFile
{
    version     2.0;
    format      ascii;
    class       dictionary;
    object      snappyHexMeshDict;
}

castellatedMesh true;
snap            true;
addLayers       false;

geometry
{
    propeller.stl
    {
        type triSurfaceMesh;
        name propeller;
    }

    refinementBox
    {
        type   searchableCylinder;
        point1 (-0.10 0 0);
        point2 ( 0.16 0 0);
        radius 0.16;
    }
}

castellatedMeshControls
{
    maxLocalCells       1000000;
    maxGlobalCells      3000000;
    minRefinementCells  10;
    nCellsBetweenLevels 3;

    features
    (
        {
            file "propeller.eMesh";
            level 4;
        }
    );

    refinementSurfaces
    {
        propeller
        {
            level (3 4);
        }
    }

    resolveFeatureAngle 30;

    refinementRegions
    {
        refinementBox
        {
            mode    inside;
            levels  ((1e15 3));
        }
    }

    locationInMesh (-0.70 0.05 0.05);

    allowFreeStandingZoneFaces true;
}

snapControls
{
    nSmoothPatch    3;
    tolerance       2.0;
    nSolveIter      50;
    nRelaxIter      5;

    nFeatureSnapIter        10;
    implicitFeatureSnap     false;
    explicitFeatureSnap     true;
    multiRegionFeatureSnap  false;
}

addLayersControls
{
    relativeSizes       true;
    layers {}
    expansionRatio      1.2;
    finalLayerThickness 0.3;
    minThickness        0.1;
    nGrow               0;
    featureAngle        60;
    nRelaxIter          3;
    nSmoothSurfaceNormals 1;
    nSmoothNormals      3;
    nSmoothThickness    10;
    maxFaceThicknessRatio 0.5;
    maxThicknessToMedialRatio 0.3;
    minMedialAxisAngle  90;
    nBufferCellsNoExtrude 0;
    nLayerIter          50;
}

meshQualityControls
{
    maxNonOrtho             65;
    maxBoundarySkewness     20;
    maxInternalSkewness     4;
    maxConcave              80;
    minVol                  1e-13;
    minTetQuality           1e-15;
    minArea                 -1;
    minTwist                0.02;
    minDeterminant          0.001;
    minFaceWeight           0.05;
    minVolRatio             0.01;
    minTriangleTwist        -1;
    nSmoothScale            4;
    errorReduction          0.75;
}

debug 0;
mergeTolerance 1e-6;
