FoamFile
{
    version     2.0;
    format      ascii;
    class       dictionary;
    object      transportProperties;
}

transportModel  Newtonian;

// κινηματικη viscosity νερου στους ~15°C
// nu = mu/rho = 1.14e-3 / 999 ≈ 1.14e-6 m^2/s
nu              1.14e-06;
